Output_case2_3p/output_current_1440.csv
# Output_case2_3p\output_current_1440.csv run at 2000-01-02 00:00:00 EST on 907 links
link_name,currA_mag,currA_angle,currB_mag,currB_angle,currC_mag,currC_angle
Source_Impedance,0.515783,-0.230079,0.516908,3.784915,0.436780,1.775085
TR1,0.515783,-0.230079,0.516908,3.784915,0.436780,1.775085
LINE1,11.524781,-0.841184,15.649325,3.347770,11.579055,1.252475
LINE2,11.524781,-0.841184,15.649325,3.347770,11.579055,1.252475
LINE3,11.524781,-0.841184,15.649325,3.347770,11.579055,1.252475
LINE4,11.524781,-0.841184,15.649325,3.347770,11.579055,1.252475
LINE5,11.524781,-0.841184,15.649325,3.347770,11.579055,1.252475
LINE6,11.524781,-0.841184,15.649325,3.347770,11.579055,1.252475
LINE7,11.524781,-0.841184,15.649325,3.347770,11.579055,1.252475
LINE8,11.524781,-0.841184,15.649325,3.347770,11.579055,1.252475
LINE9,11.524781,-0.841184,15.649325,3.347770,11.579055,1.252475
LINE10,11.524781,-0.841184,15.649325,3.347770,11.579055,1.252475
LINE11,11.524781,-0.841184,15.649325,3.347770,11.579055,1.252475
LINE12,11.524781,-0.841184,15.649325,3.347770,11.579055,1.252475
LINE13,11.524781,-0.841184,15.649325,3.347770,11.579055,1.252475
LINE14,11.524781,-0.841184,15.649325,3.347770,11.579055,1.252475
LINE15,0.000000,-0.981065,0.000000,1.446196,0.000000,1.564888
LINE16,11.524781,-0.841184,15.649325,3.347770,11.579055,1.252475
LINE17,0.000000,-1.076582,0.000000,1.165358,0.000000,1.569475
LINE18,11.524781,-0.841184,15.649325,3.347770,11.579055,1.252475
LINE19,0.000000,4.365707,0.000000,1.224114,0.000000,1.571835
LINE20,11.524781,-0.841184,15.649325,3.347770,11.579055,1.252475
LINE21,0.000000,4.099454,0.000000,0.760466,0.000000,1.577787
LINE22,11.524781,-0.841184,15.649325,3.347770,11.579055,1.252475
LINE23,0.000000,4.687457,0.000000,0.819222,0.000000,1.575234
LINE24,11.524781,-0.841184,15.649325,3.347770,11.579055,1.252475
LINE25,0.000000,4.306951,0.000000,0.760466,0.000000,1.571389
LINE26,1.599709,-0.841478,0.000000,4.676509,0.000000,2.095187
LINE27,9.925073,-0.841136,15.649325,3.347770,11.579055,1.252475
LINE28,0.000000,4.099454,0.000000,0.871123,0.000000,1.570111
LINE29,0.150359,-0.841488,0.000000,2.411094,0.000000,1.567222
LINE30,1.449350,-0.841478,0.000000,-1.560302,0.000000,2.337410
LINE31,9.925073,-0.841136,15.649325,3.347770,11.579055,1.252475
LINE32,0.000000,3.811399,0.000000,0.808049,0.000000,1.572591
LINE33,0.150359,-0.841488,0.000000,0.309947,0.000000,1.468265
LINE34,1.449350,-0.841478,0.000000,4.483580,0.000000,4.360749
LINE35,0.000000,4.685387,0.472362,3.347239,0.000000,-0.456515
LINE36,9.925073,-0.841136,15.176963,3.347787,11.579055,1.252475
LINE37,0.000000,3.580308,0.000000,0.723446,0.000000,1.571418
LINE38,1.449350,-0.841478,0.000000,4.458099,0.000000,1.645068
LINE39,0.000000,-1.536489,0.234091,3.347239,0.000000,0.207551
LINE40,0.000000,2.462337,0.238271,3.347239,0.000000,-1.313080
LINE41,9.925073,-0.841136,15.176963,3.347787,11.579055,1.252475
LINE42,0.000000,3.231776,0.000000,2.021278,0.000000,2.542539
LINE43,0.000000,3.116661,0.000000,1.545864,0.000000,1.570971
LINE44,1.449350,-0.841478,0.000000,0.615518,0.000000,4.246163
LINE45,0.000000,3.812181,0.234091,3.347239,0.000000,-1.193471
LINE46,0.000000,0.759718,0.238271,3.347239,0.000000,-1.554121
LINE47,9.925073,-0.841136,15.176963,3.347787,11.579055,1.252475
LINE48,0.000000,3.216170,0.000000,1.841308,0.000000,2.579152
LINE49,0.000000,3.116661,0.000000,0.837238,0.000000,1.572063
LINE50,1.449350,-0.841478,0.000000,0.407466,0.000000,-0.421373
LINE51,0.000000,3.246816,0.234091,3.347239,0.000000,-1.514987
LINE52,9.925073,-0.841136,15.176963,3.347787,11.579055,1.252475
LINE53,0.000000,-0.358517,0.000000,2.536305,0.000000,-1.277361
LINE54,0.000000,3.289089,0.000000,1.984885,0.000000,1.861920
LINE55,0.000000,2.992306,0.000000,1.197093,0.000000,1.576729
LINE56,1.449350,-0.841478,0.000000,-0.148533,0.000000,1.403791
LINE57,0.000000,3.202838,0.234091,3.347239,0.000000,-1.510877
LINE58,9.925073,-0.841136,15.176963,3.347787,11.579055,1.252475
LINE59,0.000000,-1.315654,0.000000,2.564425,0.000000,-1.224946
LINE60,0.000000,3.365557,0.000000,2.232397,0.000000,1.776114
LINE61,0.000000,3.281809,0.000000,1.790843,0.000000,1.576579
LINE62,1.449350,-0.841478,0.000000,2.061916,0.000000,4.666451
LINE63,0.000000,3.412227,0.234091,3.347239,0.000000,-1.360911
LINE64,7.760594,-0.841097,15.176963,3.347787,11.579055,1.252475
LINE65,2.164479,-0.841279,0.000000,1.475904,0.000000,1.452188
LINE66,0.000000,4.676629,0.000000,2.951330,0.000000,-1.362653
LINE67,0.000000,3.432702,0.000000,2.506640,0.000000,2.072734
LINE68,0.000000,3.116661,0.000000,1.824164,0.000000,1.580031
LINE69,1.449350,-0.841478,0.000000,-0.203175,0.000000,1.449313
LINE70,0.000000,1.783707,0.234091,3.347239,0.000000,-1.502974
LINE71,7.760594,-0.841097,15.176963,3.347787,11.579055,1.252475
LINE72,0.204742,-0.841286,0.000000,2.588913,0.000000,1.586465
LINE73,1.959737,-0.841278,0.000000,3.110462,0.000000,1.645602
LINE74,0.000000,-1.186253,0.000000,3.182599,0.000000,0.089264
LINE75,0.000000,3.774238,0.000000,2.739612,0.000000,1.805451
LINE76,0.000000,2.958892,0.000000,1.770576,0.000000,1.582185
LINE77,0.000000,3.395046,0.234091,3.347239,0.000000,4.552883
LINE78,7.760594,-0.841097,15.176963,3.347787,11.579055,1.252475
LINE79,0.000000,-0.730557,0.000000,3.120961,0.000000,1.165805
LINE80,0.000000,3.798688,0.000000,2.788056,0.000000,1.911928
LINE81,0.000000,2.957309,0.000000,1.764533,0.000000,1.583195
LINE82,0.000000,4.088252,0.234091,3.347239,0.000000,1.568945
LINE83,7.760594,-0.841097,15.176963,3.347787,11.579055,1.252475
LINE84,0.000000,4.108463,0.000000,2.941190,0.000000,-0.852981
LINE85,0.000000,3.737605,0.000000,2.761780,0.000000,1.889665
LINE86,0.000000,3.016992,0.000000,1.913038,0.000000,1.581679
LINE87,7.760594,-0.841097,15.176963,3.347787,11.579055,1.252475
LINE88,0.000000,1.651817,0.000000,3.409118,0.000000,1.349266
LINE89,0.000000,3.730220,0.000000,2.702817,0.000000,1.834080
LINE90,0.000000,2.757890,0.000000,1.824164,0.000000,1.580542
LINE91,7.760594,-0.841097,15.176963,3.347787,11.579055,1.252475
LINE92,0.000000,3.647677,0.000000,2.447921,0.000000,1.481459
LINE93,0.000000,2.331263,0.000000,1.545864,0.000000,1.593923
LINE94,7.760594,-0.841097,15.176963,3.347787,11.579055,1.252475
LINE95,0.000000,3.884918,0.000000,2.850246,0.000000,-0.757751
LINE96,0.000000,2.653013,0.000000,0.760466,0.000000,1.589781
LINE97,7.760594,-0.841097,15.176963,3.347787,11.579055,1.252475
LINE98,0.000000,3.143052,0.000000,-0.282978,0.000000,2.051082
LINE99,0.000000,1.545864,0.000000,1.545864,0.000000,3.116661
LINE100,7.760594,-0.841097,15.176963,3.347787,11.579055,1.252475
LINE101,0.000000,3.554166,0.000000,0.357251,0.000000,2.138278
LINE102,0.000000,0.000000,0.000000,0.000000,0.000000,-0.024932
LINE103,0.217277,-0.841246,1.284828,3.347567,0.443215,1.252520
LINE104,7.543317,-0.841092,13.892135,3.347807,11.135841,1.252473
LINE105,0.000000,3.631326,0.000000,0.008085,0.000000,2.259497
LINE106,0.217277,-0.841246,1.284828,3.347567,0.443215,1.252520
LINE107,7.543317,-0.841092,13.892135,3.347807,11.135841,1.252473
LINE108,0.000000,3.483436,0.000000,0.050813,0.000000,3.097825
LINE109,0.217277,-0.841246,1.284828,3.347567,0.443215,1.252520
LINE110,7.543317,-0.841092,13.892135,3.347807,11.135841,1.252473
LINE111,0.000000,3.513550,0.000000,-0.019603,0.000000,2.804055
LINE112,0.217277,-0.841246,1.284828,3.347567,0.443215,1.252520
LINE113,7.543317,-0.841092,13.892135,3.347807,11.135841,1.252473
LINE114,0.000000,3.515335,0.000000,-0.022043,0.000000,2.821659
LINE115,0.217277,-0.841246,1.284828,3.347567,0.443215,1.252520
LINE116,0.213108,-0.841221,4.551936,3.347737,2.752350,1.252491
LINE117,7.330209,-0.841089,9.340199,3.347841,8.383491,1.252467
LINE118,0.000000,3.516610,0.000000,-0.023541,0.000000,2.667448
LINE119,0.217277,-0.841246,1.284828,3.347567,0.443215,1.252520
LINE120,0.000000,2.331263,0.000000,2.133867,0.000000,4.705800
LINE121,0.213108,-0.841221,4.551936,3.347737,2.752350,1.252491
LINE122,7.330209,-0.841089,9.340199,3.347841,8.383491,1.252467
LINE123,0.000000,3.540480,0.000000,-0.058486,0.000000,3.088654
LINE124,0.217277,-0.841246,1.284828,3.347567,0.443215,1.252520
LINE125,0.000000,2.558061,0.000000,1.224114,0.000000,4.706010
LINE126,0.213108,-0.841221,4.551936,3.347737,2.752350,1.252491
LINE127,7.330209,-0.841089,9.340199,3.347841,8.383491,1.252467
LINE128,0.000000,3.455541,0.000000,-0.108761,0.000000,3.605810
LINE129,0.217277,-0.841246,1.284828,3.347567,0.443215,1.252520
LINE130,0.000000,2.331263,0.000000,0.957862,0.000000,4.704476
LINE131,0.213108,-0.841221,0.000000,4.295557,0.000000,-1.555322
LINE132,0.000000,3.916994,4.551936,3.347737,2.752350,1.252491
LINE133,7.330209,-0.841089,9.340199,3.347841,8.383491,1.252467
LINE134,0.000000,3.409645,0.000000,-0.170825,0.000000,3.432400
LINE135,0.217277,-0.841246,1.284828,3.347567,0.443215,1.252520
LINE136,0.000000,2.736154,0.000000,0.618569,0.000000,4.709356
LINE137,0.213108,-0.841221,0.000000,4.224436,0.000000,-1.558975
LINE138,0.000000,3.914093,4.551936,3.347737,2.752350,1.252491
LINE139,7.330209,-0.841089,9.340199,3.347841,8.383491,1.252467
LINE140,0.000000,3.428994,0.000000,-0.181302,0.000000,3.271404
LINE141,0.217277,-0.841246,1.284828,3.347567,0.443215,1.252520
LINE142,0.000000,2.473160,0.000000,0.515488,0.000000,4.705033
LINE143,0.213108,-0.841221,0.000000,4.214781,0.000000,-1.548852
LINE144,0.000000,3.904753,4.551936,3.347737,2.752350,1.252491
LINE145,7.330209,-0.841089,9.340199,3.347841,8.383491,1.252467
LINE146,0.000000,3.392125,0.000000,-0.114504,0.000000,3.600567
LINE147,0.217277,-0.841246,1.284828,3.347567,0.443215,1.252520
LINE148,0.000000,2.473160,0.000000,0.533667,0.000000,4.705576
LINE149,0.213108,-0.841221,0.000000,4.092632,0.000000,-1.568706
LINE150,0.000000,3.934925,0.000000,4.044782,2.752350,1.252491
LINE151,0.000000,1.185712,4.551936,3.347737,0.000000,0.887930
LINE152,7.330209,-0.841089,9.340199,3.347841,8.383491,1.252467
LINE153,0.000000,3.002048,0.000000,-0.737755,0.000000,3.853813
LINE154,0.217277,-0.841246,1.284828,3.347567,0.443215,1.252520
LINE155,0.000000,2.794910,0.000000,0.140217,0.000000,4.703813
LINE156,0.213108,-0.841221,0.000000,4.279277,0.000000,-1.537624
LINE157,0.000000,3.927195,0.000000,4.054976,2.752350,1.252491
LINE158,0.000000,1.308121,4.551936,3.347737,0.000000,1.126211
LINE159,7.330209,-0.841089,9.340199,3.347841,8.383491,1.252467
LINE160,0.000000,2.974369,0.000000,1.218729,0.000000,3.422509
LINE161,0.000000,0.702671,0.878883,3.347571,0.000000,4.692782
LINE162,0.217277,-0.841246,0.405946,3.347559,0.443215,1.252520
LINE163,0.000000,2.421922,0.000000,0.369859,0.000000,4.682086
LINE164,0.213108,-0.841221,0.000000,4.221358,0.000000,-1.540701
LINE165,0.000000,3.929810,0.000000,4.051957,2.752350,1.252491
LINE166,0.000000,1.427674,4.551936,3.347737,0.000000,0.403419
LINE167,7.330209,-0.841089,9.340199,3.347841,8.383491,1.252467
LINE168,0.000000,3.673075,0.000000,2.935747,0.000000,-0.070807
LINE169,0.000000,1.589777,0.878883,3.347571,0.000000,4.706250
LINE170,0.217277,-0.841246,0.405946,3.347559,0.443215,1.252520
LINE171,0.000000,1.545864,0.000000,0.438716,0.000000,-1.570668
LINE172,0.213108,-0.841221,0.000000,4.194657,0.000000,-1.527590
LINE173,0.000000,3.759491,0.000000,4.147694,0.000000,-1.488171
LINE174,0.000000,-0.342196,0.000000,3.666110,2.752350,1.252491
LINE175,0.000000,1.425201,4.551936,3.347737,0.000000,-1.149752
LINE176,7.330209,-0.841089,9.340199,3.347841,8.383491,1.252467
LINE177,0.000000,-1.034565,0.878883,3.347571,0.000000,-1.525379
LINE178,0.217277,-0.841246,0.405946,3.347559,0.000000,2.701546
LINE179,0.000000,0.212314,0.000000,2.781970,0.443215,1.252520
LINE180,0.000000,2.653013,0.000000,0.957862,0.000000,-0.024932
LINE181,0.213108,-0.841221,0.000000,4.261222,0.000000,-1.542933
LINE182,0.000000,3.745343,0.000000,4.205527,0.000000,-1.486706
LINE183,0.000000,-0.331550,0.000000,3.675679,2.752350,1.252491
LINE184,0.000000,2.052271,4.551936,3.347737,0.000000,-1.306214
LINE185,7.330209,-0.841089,9.340199,3.347841,8.383491,1.252467
LINE186,0.217277,-0.841246,0.405946,3.347559,0.000000,3.516862
LINE187,0.000000,0.219438,0.000000,2.776701,0.443215,1.252520
LINE188,0.000000,3.361639,0.000000,0.438716,0.000000,4.697711
LINE189,0.213108,-0.841221,0.000000,4.469311,0.000000,-1.541954
LINE190,0.000000,0.721582,0.000000,-0.214484,0.000000,4.306136
LINE191,0.000000,3.740880,0.000000,4.146295,0.000000,-1.548925
LINE192,0.000000,-0.319285,0.000000,3.655492,2.752350,1.252491
LINE193,0.000000,2.207552,4.551936,3.347737,0.000000,-1.394284
LINE194,7.330209,-0.841089,9.340199,3.347841,8.383491,1.252467
LINE195,0.217277,-0.841246,0.405946,3.347559,0.000000,3.767797
LINE196,0.000000,0.785055,0.000000,2.004731,0.221607,1.252520
LINE197,0.000000,0.212026,0.000000,2.815599,0.221607,1.252520
LINE198,0.000000,3.116661,0.000000,1.082217,0.000000,-1.563513
LINE199,0.213108,-0.841221,0.000000,4.310405,0.000000,-1.550127
LINE200,0.000000,4.321786,0.000000,4.321786,0.000000,-0.908157
LINE201,0.000000,3.668712,0.000000,4.463204,0.000000,-1.549351
LINE202,0.000000,-0.292116,0.000000,3.652721,2.752350,1.252491
LINE203,0.000000,2.087625,4.551936,3.347737,0.000000,-1.426544
LINE204,7.330209,-0.841089,9.340199,3.347841,8.383491,1.252467
LINE205,0.217277,-0.841246,0.000000,-0.691070,0.000000,2.697426
LINE206,0.000000,1.372713,0.405946,3.347559,0.000000,3.435007
LINE207,0.000000,1.525646,0.000000,1.561863,0.221607,1.252520
LINE208,0.000000,0.277615,0.000000,2.618619,0.221607,1.252520
LINE209,0.000000,3.116661,0.000000,2.653013,0.000000,-1.557173
LINE210,0.213108,-0.841221,0.000000,4.164419,0.000000,-1.530483
LINE211,0.000000,3.762204,0.000000,4.096462,0.000000,-1.516560
LINE212,0.000000,-0.213661,0.000000,3.725011,2.752350,1.252491
LINE213,0.000000,2.185863,4.551936,3.347737,0.000000,-1.420138
LINE214,7.330209,-0.841089,9.340199,3.347841,8.383491,1.252467
LINE215,0.217277,-0.841246,0.000000,3.337202,0.000000,1.907416
LINE216,0.000000,0.818721,0.405946,3.347559,0.000000,2.852875
LINE217,0.000000,0.114385,0.000000,2.749190,0.221607,1.252520
LINE218,0.000000,0.000000,0.000000,0.000000,0.000000,-0.024932
LINE219,0.213108,-0.841221,0.000000,4.166543,0.000000,-1.533832
LINE220,0.000000,3.594539,0.000000,4.059453,0.000000,-1.501621
LINE221,0.000000,-0.271967,0.000000,3.705965,2.752350,1.252491
LINE222,0.000000,2.237533,4.551936,3.347737,0.000000,-1.345501
LINE223,7.330209,-0.841089,9.340199,3.347841,8.383491,1.252467
LINE224,0.217277,-0.841246,0.000000,3.193845,0.000000,1.625381
LINE225,0.000000,1.356381,0.405946,3.347559,0.000000,3.590758
LINE226,0.000000,0.137099,0.000000,2.567740,0.221607,1.252520
LINE227,0.213108,-0.841221,0.000000,4.109471,0.000000,-1.567541
LINE228,0.000000,3.388762,0.000000,3.654214,0.000000,-1.340715
LINE229,0.000000,-0.269908,0.000000,3.684226,2.752350,1.252491
LINE230,0.000000,2.142861,4.551936,3.347737,0.000000,-1.320430
LINE231,7.330209,-0.841089,9.340199,3.347841,8.383491,1.252467
LINE232,0.000000,-0.318207,0.405946,3.347559,0.000000,1.573629
LINE233,0.000000,-1.387444,0.000000,2.557272,0.000000,1.209809
LINE234,0.000000,-0.068205,0.000000,3.319727,0.221607,1.252520
LINE235,0.213108,-0.841221,0.000000,3.699281,0.000000,-1.554859
LINE236,0.000000,3.724073,0.000000,3.679511,0.000000,-1.383011
LINE237,0.000000,-0.279357,0.000000,3.660703,2.752350,1.252491
LINE238,0.000000,1.458806,4.551936,3.347737,0.000000,-1.383279
LINE239,7.330209,-0.841089,9.340199,3.347841,8.383491,1.252467
LINE240,0.000000,-0.422054,0.405946,3.347559,0.000000,1.575866
LINE241,0.000000,-0.364378,0.000000,4.150995,0.221607,1.252520
LINE242,0.213108,-0.841221,0.000000,3.682645,0.000000,-1.297861
LINE243,0.000000,4.218573,0.000000,3.460213,0.000000,-1.477656
LINE244,0.000000,-0.255588,0.000000,3.784813,2.752350,1.252491
LINE245,0.000000,1.871025,4.551936,3.347737,0.000000,-1.403449
LINE246,7.330209,-0.841089,9.340199,3.347841,8.383491,1.252467
LINE247,0.000000,3.815153,0.200880,3.347559,0.000000,-0.589660
LINE248,0.000000,3.759250,0.205065,3.347559,0.000000,4.685750
LINE249,0.000000,1.055883,0.000000,0.020542,0.221607,1.252520
LINE250,0.213108,-0.841221,0.000000,-1.252915,0.000000,-1.556117
LINE251,0.000000,3.013436,0.000000,4.705563,0.000000,-1.453767
LINE252,0.000000,-0.258693,0.000000,3.830426,2.752350,1.252491
LINE253,0.000000,1.809355,4.551936,3.347737,0.000000,-1.417127
LINE254,0.647824,-0.841193,0.000000,0.637961,0.000000,4.630644
LINE255,6.682385,-0.841079,9.340199,3.347841,8.383491,1.252467
LINE256,0.000000,0.620340,0.000000,3.886381,0.221607,1.252520
LINE257,0.213108,-0.841221,0.000000,-1.159502,0.000000,4.695047
LINE258,0.000000,2.410552,0.000000,3.673240,0.000000,4.692464
LINE259,0.000000,-0.257399,0.000000,3.818852,2.752350,1.252491
LINE260,0.000000,2.114811,4.551936,3.347737,0.000000,-1.326245
LINE261,0.647824,-0.841193,0.000000,0.611942,0.000000,4.624575
LINE262,6.682385,-0.841079,9.340199,3.347841,8.383491,1.252467
LINE263,0.000000,-0.055700,0.000000,-0.531493,0.221607,1.252520
LINE264,0.213108,-0.841221,0.000000,2.121162,0.000000,4.644137
LINE265,0.000000,0.856224,0.000000,3.694909,0.000000,4.566413
LINE266,0.000000,-0.226948,0.000000,3.786448,2.752350,1.252491
LINE267,0.000000,-0.990197,4.363517,3.347738,0.000000,1.675467
LINE268,0.000000,2.593683,0.188419,3.347706,0.000000,-1.517427
LINE269,0.647824,-0.841193,0.000000,0.672889,0.000000,4.620759
LINE270,0.000000,0.372820,0.000000,-0.241850,0.209168,1.252455
LINE271,6.682385,-0.841079,9.340199,3.347841,8.174323,1.252468
LINE272,0.213108,-0.841221,0.000000,0.171112,0.000000,1.588867
LINE273,0.000000,0.734096,0.000000,4.106855,0.000000,-1.396005
LINE274,0.000000,-0.357723,0.000000,3.847873,2.752350,1.252491
LINE275,0.000000,1.160652,4.363517,3.347738,0.000000,1.559381
LINE276,0.000000,2.582355,0.188419,3.347706,0.000000,-1.473535
LINE277,0.647824,-0.841193,0.000000,0.728081,0.000000,4.634962
LINE278,0.000000,0.042109,0.000000,-0.988328,0.209168,1.252455
LINE279,6.682385,-0.841079,9.340199,3.347841,8.174323,1.252468
LINE280,0.213108,-0.841221,0.000000,3.667184,0.000000,1.615574
LINE281,0.000000,-0.438722,0.000000,-1.189892,0.000000,-1.094072
LINE282,0.000000,-0.321395,0.000000,4.082496,2.752350,1.252491
LINE283,0.000000,2.517717,0.188419,3.347706,0.000000,2.842452
LINE284,0.647824,-0.841193,0.000000,0.722191,0.000000,4.632036
LINE285,0.000000,-0.890214,0.000000,-1.447667,0.209168,1.252455
LINE286,1.826822,-0.841043,4.651116,3.347823,1.179957,1.252367
LINE287,4.855564,-0.841092,4.689083,3.347859,6.994366,1.252485
LINE288,0.213108,-0.841221,0.000000,0.563339,0.000000,4.562198
LINE289,0.000000,3.639372,0.000000,3.103457,0.000000,0.942944
LINE290,0.000000,3.870487,0.000000,2.063014,0.225870,1.252484
LINE291,0.000000,-0.030906,0.000000,4.550929,2.526480,1.252492
LINE292,0.000000,2.771531,0.188419,3.347706,0.000000,1.518141
LINE293,0.647824,-0.841193,0.000000,0.859089,0.000000,4.617685
LINE294,0.000000,-0.391487,0.000000,4.188331,0.209168,1.252455
LINE295,1.826822,-0.841043,4.651116,3.347823,1.179957,1.252367
LINE296,4.855564,-0.841092,4.689083,3.347859,6.994366,1.252485
LINE297,0.000000,0.556154,0.000000,2.982170,0.225870,1.252484
LINE298,0.000000,2.426948,0.000000,4.484413,2.526480,1.252492
LINE299,0.000000,2.993244,0.188419,3.347706,0.000000,4.677972
LINE300,0.647824,-0.841193,0.000000,0.766205,0.000000,4.615268
LINE301,0.000000,-0.564351,0.000000,4.144299,0.209168,1.252455
LINE302,1.826822,-0.841043,4.651116,3.347823,1.179957,1.252367
LINE303,4.855564,-0.841092,4.689083,3.347859,6.994366,1.252485
LINE304,0.000000,1.225472,0.000000,3.113864,0.225870,1.252484
LINE305,0.000000,3.679162,0.000000,1.844220,2.526480,1.252492
LINE306,0.000000,2.995337,0.188419,3.347706,0.000000,4.644670
LINE307,0.647824,-0.841193,0.000000,0.566161,0.000000,4.584408
LINE308,0.000000,-0.492324,0.000000,4.140987,0.209168,1.252455
LINE309,1.826822,-0.841043,4.651116,3.347823,1.179957,1.252367
LINE310,4.855564,-0.841092,4.689083,3.347859,6.994366,1.252485
LINE311,0.000000,2.365831,0.000000,3.592676,0.225870,1.252484
LINE312,0.000000,1.235265,0.000000,1.378024,2.526480,1.252492
LINE313,0.000000,2.753159,0.188419,3.347706,0.000000,2.680444
LINE314,0.647824,-0.841193,0.000000,0.517901,0.000000,4.605554
LINE315,0.000000,-0.554341,0.000000,4.146452,0.209168,1.252455
LINE316,0.259136,-0.841159,0.000000,1.249572,0.000000,-1.310848
LINE317,1.567686,-0.841024,4.651116,3.347823,1.179957,1.252367
LINE318,4.855564,-0.841092,4.689083,3.347859,6.994366,1.252485
LINE319,0.000000,-0.138470,0.000000,3.657569,0.225870,1.252484
LINE320,0.000000,0.097282,0.000000,0.933460,2.526480,1.252492
LINE321,0.647824,-0.841193,0.000000,0.445832,0.000000,4.629760
LINE322,0.000000,3.457892,0.000000,-0.017076,0.209168,1.252455
LINE323,0.259136,-0.841159,0.000000,1.217901,0.000000,-1.366770
LINE324,1.567686,-0.841024,4.651116,3.347823,1.179957,1.252367
LINE325,4.855564,-0.841092,4.689083,3.347859,6.994366,1.252485
LINE326,0.000000,3.100898,0.000000,-0.129246,2.526480,1.252492
LINE327,0.647824,-0.841193,0.000000,0.370165,0.000000,4.651673
LINE328,0.000000,3.973018,0.000000,-0.158271,0.209168,1.252455
LINE329,0.259136,-0.841159,0.000000,1.253259,0.000000,-1.372951
LINE330,0.000000,2.915633,0.000000,3.065438,0.225914,1.252369
LINE331,1.567686,-0.841024,4.651116,3.347823,0.954042,1.252366
LINE332,4.855564,-0.841092,4.689083,3.347859,6.994366,1.252485
LINE333,0.647824,-0.841193,0.000000,0.349184,0.000000,4.636195
LINE334,0.000000,1.583252,0.000000,-0.131977,0.209168,1.252455
LINE335,0.259136,-0.841159,0.000000,1.221962,0.000000,-1.378157
LINE336,0.000000,3.914396,0.000000,3.914396,0.225914,1.252369
LINE337,0.000000,3.055178,3.448505,3.347830,0.000000,1.588648
LINE338,1.567686,-0.841024,1.202610,3.347802,0.954042,1.252366
LINE339,4.855564,-0.841092,4.689083,3.347859,6.994366,1.252485
LINE340,0.647824,-0.841193,0.000000,0.385376,0.000000,4.614081
LINE341,0.000000,0.209197,0.000000,3.283100,0.209168,1.252455
LINE342,0.142107,-0.841159,0.000000,3.372987,0.000000,0.375381
LINE343,0.117029,-0.841159,0.000000,1.324965,0.000000,-1.361141
LINE344,0.000000,3.039031,3.448505,3.347830,0.000000,1.588333
LINE345,1.567686,-0.841024,1.202610,3.347802,0.954042,1.252366
LINE346,4.855564,-0.841092,4.689083,3.347859,6.994366,1.252485
LINE347,0.647824,-0.841193,0.000000,0.555065,0.000000,4.623903
LINE348,0.142107,-0.841159,0.000000,-1.519183,0.000000,1.109576
LINE349,0.117029,-0.841159,0.000000,1.444699,0.000000,-1.035648
LINE350,0.000000,3.143606,3.448505,3.347830,0.000000,1.588461
LINE351,1.567686,-0.841024,1.202610,3.347802,0.954042,1.252366
LINE352,4.855564,-0.841092,4.689083,3.347859,6.994366,1.252485
LINE353,0.647824,-0.841193,0.000000,0.319383,0.000000,4.607523
LINE354,0.117029,-0.841159,0.000000,1.763184,0.000000,-1.386750
LINE355,0.000000,2.970059,3.448505,3.347830,0.000000,1.575300
LINE356,1.567686,-0.841024,1.202610,3.347802,0.954042,1.252366
LINE357,4.855564,-0.841092,4.689083,3.347859,6.994366,1.252485
LINE358,0.647824,-0.841193,0.000000,0.138755,0.000000,4.222606
LINE359,0.117029,-0.841159,0.000000,1.048056,0.000000,4.696777
LINE360,0.000000,2.702135,3.448505,3.347830,0.000000,1.571788
LINE361,1.567686,-0.841024,1.202610,3.347802,0.954042,1.252366
LINE362,4.855564,-0.841092,4.689083,3.347859,6.994366,1.252485
LINE363,0.647824,-0.841193,0.000000,0.008056,0.000000,4.703872
LINE364,0.117029,-0.841159,0.000000,-0.200112,0.000000,1.422305
LINE365,0.000000,1.699986,3.448505,3.347830,0.000000,1.763429
LINE366,1.567686,-0.841024,1.202610,3.347802,0.954042,1.252366
LINE367,4.855564,-0.841092,4.689083,3.347859,6.994366,1.252485
LINE368,0.647824,-0.841193,0.000000,3.423922,0.000000,1.421543
LINE369,0.117029,-0.841159,0.000000,0.415431,0.000000,1.571201
LINE370,0.000000,2.405285,3.448505,3.347830,0.000000,1.522964
LINE371,1.567686,-0.841024,1.202610,3.347802,0.954042,1.252366
LINE372,4.855564,-0.841092,4.689083,3.347859,6.994366,1.252485
LINE373,0.647824,-0.841193,0.000000,3.082464,0.000000,-1.442828
LINE374,0.117029,-0.841159,0.000000,3.130704,0.000000,-1.487865
LINE375,0.000000,2.722400,3.448505,3.347830,0.000000,1.543310
LINE376,1.567686,-0.841024,1.202610,3.347802,0.954042,1.252366
LINE377,4.855564,-0.841092,4.689083,3.347859,4.885306,1.252477
LINE378,0.000000,-0.553191,0.000000,1.043461,2.109061,1.252503
LINE379,0.647824,-0.841193,0.000000,-0.082244,0.000000,-1.523037
LINE380,0.117029,-0.841159,0.000000,0.594305,0.000000,1.314145
LINE381,0.000000,2.819660,3.448505,3.347830,0.000000,1.484970
LINE382,1.567686,-0.841024,1.202610,3.347802,0.954042,1.252366
LINE383,4.855564,-0.841092,4.689083,3.347859,4.885306,1.252477
LINE384,0.000000,-0.717781,0.000000,2.504897,2.109061,1.252503
LINE385,0.000000,-0.029805,0.000000,0.772344,0.000000,4.654132
LINE386,0.647824,-0.841193,0.000000,3.880633,0.000000,-1.459812
LINE387,0.117029,-0.841159,0.000000,4.613997,0.000000,-0.532274
LINE388,0.000000,2.908831,3.448505,3.347830,0.000000,1.529460
LINE389,1.567686,-0.841024,1.202610,3.347802,0.954042,1.252366
LINE390,4.855564,-0.841092,4.689083,3.347859,4.885306,1.252477
LINE391,0.000000,-0.727559,0.000000,2.402790,2.109061,1.252503
LINE392,0.000000,-0.064872,0.000000,0.779648,0.000000,4.653160
LINE393,0.000000,3.385392,3.448505,3.347830,0.000000,-1.429150
LINE394,1.567686,-0.841024,1.202610,3.347802,0.954042,1.252366
LINE395,0.000000,0.098486,0.000000,1.742017,1.280424,1.252482
LINE396,4.855564,-0.841092,4.689083,3.347859,3.604882,1.252475
LINE397,0.000000,-0.790002,0.000000,2.308259,2.109061,1.252503
LINE398,0.000000,-0.208049,0.000000,0.807220,0.000000,4.639239
LINE399,0.000000,4.382403,3.448505,3.347830,0.000000,-1.529606
LINE400,1.567686,-0.841024,1.202610,3.347802,0.954042,1.252366
LINE401,0.000000,0.128732,0.000000,1.434823,1.280424,1.252482
LINE402,4.855564,-0.841092,4.689083,3.347859,3.604882,1.252475
LINE403,0.000000,-1.062107,0.000000,2.325991,2.109061,1.252503
LINE404,0.000000,-0.315393,0.000000,0.733359,0.000000,4.653082
LINE405,0.000000,0.341614,3.448505,3.347830,0.000000,1.378702
LINE406,1.567686,-0.841024,1.202610,3.347802,0.954042,1.252366
LINE407,0.000000,0.210853,0.000000,1.018283,1.280424,1.252482
LINE408,4.855564,-0.841092,4.689083,3.347859,3.604882,1.252475
LINE409,0.000000,-0.377343,0.000000,3.674786,0.000000,1.528375
LINE410,0.000000,4.706298,0.000000,1.786824,2.109061,1.252503
LINE411,0.000000,-0.405802,0.000000,0.583644,0.000000,3.095304
LINE412,1.567686,-0.841024,1.202610,3.347802,0.954042,1.252366
LINE413,0.000000,0.134594,0.000000,1.178777,1.280424,1.252482
LINE414,4.855564,-0.841092,4.689083,3.347859,3.604882,1.252475
LINE415,0.000000,-0.389089,0.000000,3.660258,0.000000,1.544148
LINE416,0.000000,-1.532176,0.000000,2.150575,2.109061,1.252503
LINE417,0.000000,-0.268238,0.000000,0.539992,0.000000,4.600049
LINE418,1.567686,-0.841024,1.202610,3.347802,0.954042,1.252366
LINE419,0.000000,0.038943,0.000000,0.978746,1.280424,1.252482
LINE420,4.855564,-0.841092,4.689083,3.347859,3.604882,1.252475
LINE421,0.000000,-0.227850,0.000000,3.799085,0.000000,1.530448
LINE422,0.000000,4.600121,0.000000,2.162287,2.109061,1.252503
LINE423,0.000000,-0.161936,0.000000,0.448998,0.000000,4.402129
LINE424,1.567686,-0.841024,1.202610,3.347802,0.954042,1.252366
LINE425,0.000000,0.436474,0.000000,3.222096,0.000000,-0.463517
LINE426,0.000000,0.074641,0.000000,1.297969,1.280424,1.252482
LINE427,4.855564,-0.841092,4.689083,3.347859,3.604882,1.252475
LINE428,0.000000,-0.317294,0.000000,3.713244,0.000000,1.608705
LINE429,0.000000,3.606154,0.000000,1.273719,2.109061,1.252503
LINE430,0.000000,-0.138000,0.000000,0.498931,0.000000,4.428984
LINE431,1.567686,-0.841024,1.202610,3.347802,0.954042,1.252366
LINE432,0.000000,-0.583249,0.000000,2.409234,0.000000,1.785272
LINE433,0.000000,0.054459,0.000000,1.243477,1.280424,1.252482
LINE434,4.855564,-0.841092,4.689083,3.347859,3.604882,1.252475
LINE435,0.000000,-0.261110,0.000000,3.736177,0.000000,1.646475
LINE436,0.000000,4.580897,0.000000,1.553849,2.109061,1.252503
LINE437,0.000000,-0.187656,0.000000,0.423362,0.000000,3.038303
LINE438,1.567686,-0.841024,1.202610,3.347802,0.954042,1.252366
LINE439,0.000000,1.369399,0.000000,-1.527401,0.000000,1.793746
LINE440,0.000000,-0.044701,0.000000,1.304960,1.280424,1.252482
LINE441,4.855564,-0.841092,4.689083,3.347859,3.604882,1.252475
LINE442,0.000000,-0.193514,0.000000,3.656517,0.000000,1.634302
LINE443,0.000000,2.937192,0.000000,0.752346,2.109061,1.252503
LINE444,0.000000,-0.175516,0.000000,0.883167,0.000000,4.273427
LINE445,1.567686,-0.841024,1.202610,3.347802,0.954042,1.252366
LINE446,0.000000,4.511104,0.000000,4.544042,0.000000,1.173872
LINE447,0.000000,0.058838,0.000000,1.322460,1.280424,1.252482
LINE448,4.855564,-0.841092,4.689083,3.347859,3.604882,1.252475
LINE449,0.000000,-0.182092,0.000000,3.753713,0.000000,1.620924
LINE450,0.000000,2.994857,0.000000,0.051673,2.109061,1.252503
LINE451,0.000000,-0.152125,0.000000,0.553140,0.000000,4.303548
LINE452,1.567686,-0.841024,1.202610,3.347802,0.954042,1.252366
LINE453,0.000000,2.438469,0.000000,-0.591440,0.000000,1.705962
LINE454,0.000000,0.020799,0.000000,1.196050,1.280424,1.252482
LINE455,4.855564,-0.841092,4.689083,3.347859,3.604882,1.252475
LINE456,0.000000,-0.033274,0.000000,3.535807,0.000000,1.703278
LINE457,0.000000,2.882357,0.000000,4.087477,2.109061,1.252503
LINE458,0.000000,-0.201773,0.000000,0.335798,0.000000,3.976872
LINE459,1.367039,-0.841021,1.202610,3.347802,0.954042,1.252366
LINE460,0.000000,2.939912,0.000000,2.939912,0.000000,-0.145406
LINE461,0.200647,-0.841048,0.000000,0.463695,0.000000,-1.558653
LINE462,0.000000,0.195702,0.000000,0.992894,1.280424,1.252482
LINE463,4.855564,-0.841092,4.689083,3.347859,3.604882,1.252475
LINE464,0.000000,-0.201700,0.000000,3.673458,0.000000,1.725282
LINE465,0.000000,-0.297835,0.000000,0.590644,0.000000,4.098175
LINE466,1.367039,-0.841021,1.202610,3.347802,0.954042,1.252366
LINE467,0.000000,4.390002,0.000000,1.481273,0.000000,-1.509701
LINE468,0.000000,-0.201681,0.000000,-0.201681,0.000000,2.996186
LINE469,0.200647,-0.841048,0.000000,0.452999,0.000000,4.703606
LINE470,0.000000,0.223277,0.000000,1.021829,1.280424,1.252482
LINE471,4.855564,-0.841092,4.689083,3.347859,3.604882,1.252475
LINE472,0.000000,0.224663,0.000000,3.490594,0.000000,1.884878
LINE473,0.000000,-0.255862,0.000000,0.492858,0.000000,4.320715
LINE474,1.367039,-0.841021,1.202610,3.347802,0.954042,1.252366
LINE475,0.000000,0.827564,0.000000,-0.588282,0.000000,-1.039282
LINE476,0.200647,-0.841048,0.000000,0.491999,0.000000,-1.537544
LINE477,0.000000,0.178548,0.000000,0.805157,1.280424,1.252482
LINE478,4.855564,-0.841092,4.689083,3.347859,3.604882,1.252475
LINE479,0.000000,0.501088,0.000000,3.676967,0.000000,1.740398
LINE480,0.000000,-0.081430,0.000000,0.394574,0.000000,3.142760
LINE481,0.965725,-0.841015,1.202610,3.347802,0.954042,1.252366
LINE482,0.000000,3.194966,0.000000,2.585612,0.000000,4.591817
LINE483,0.401314,-0.841034,0.000000,-0.181794,0.000000,-1.560071
LINE484,0.200647,-0.841048,0.000000,0.586933,0.000000,-1.533061
LINE485,0.000000,0.124650,0.000000,0.729616,1.280424,1.252482
LINE486,4.855564,-0.841092,4.689083,3.347859,3.604882,1.252475
LINE487,0.000000,0.238307,0.000000,3.693093,0.000000,1.703886
LINE488,0.000000,-0.539501,0.000000,3.517319,0.000000,1.511447
LINE489,0.965725,-0.841015,1.202610,3.347802,0.954042,1.252366
LINE490,0.000000,-1.540463,0.000000,3.302768,0.000000,2.567761
LINE491,0.179755,-0.841034,0.000000,-0.186988,0.000000,-1.563705
LINE492,0.221559,-0.841034,0.000000,2.686121,0.000000,-1.376431
LINE493,0.200647,-0.841048,0.000000,0.867935,0.000000,-1.527984
LINE494,0.000000,0.458052,0.000000,0.721851,1.280424,1.252482
LINE495,4.855564,-0.841092,4.689083,3.347859,3.604882,1.252475
LINE496,0.000000,0.310984,0.000000,3.565350,0.000000,1.633198
LINE497,0.000000,-0.061118,0.000000,2.293338,0.000000,-1.471338
LINE498,0.965725,-0.841015,1.202610,3.347802,0.954042,1.252366
LINE499,0.000000,-0.584689,0.000000,2.498714,0.000000,4.375282
LINE500,0.179755,-0.841034,0.000000,-0.125261,0.000000,-1.553760
LINE501,0.221559,-0.841034,0.000000,3.333794,0.000000,4.671752
LINE502,0.200647,-0.841048,0.000000,0.799949,0.000000,-1.505359
LINE503,0.000000,0.277552,0.000000,0.624316,1.280424,1.252482
LINE504,4.855564,-0.841092,4.689083,3.347859,3.604882,1.252475
LINE505,0.000000,0.410244,0.000000,3.576611,0.000000,1.621983
LINE506,0.000000,-0.149575,0.000000,-0.149575,0.000000,3.066247
LINE507,0.965725,-0.841015,1.202610,3.347802,0.954042,1.252366
LINE508,0.000000,4.633712,0.000000,-1.490728,0.000000,4.656269
LINE509,0.179755,-0.841034,0.000000,-0.009153,0.000000,-1.561152
LINE510,0.200647,-0.841048,0.000000,0.914782,0.000000,-1.525086
LINE511,0.000000,1.183473,0.000000,0.213282,1.280424,1.252482
LINE512,0.000000,1.024801,0.762356,3.347722,0.000000,1.427848
LINE513,4.855564,-0.841092,3.926727,3.347886,3.604882,1.252475
LINE514,0.000000,1.030956,0.000000,3.574035,0.000000,1.535852
LINE515,0.000000,0.774322,1.202610,3.347802,0.954042,1.252366
LINE516,0.000000,-1.029068,0.000000,2.829817,0.000000,2.044962
LINE517,0.965725,-0.841015,0.000000,2.691431,0.000000,-1.354001
LINE518,0.179755,-0.841034,0.000000,-0.108744,0.000000,4.705143
LINE519,0.200647,-0.841048,0.000000,0.889318,0.000000,-1.524799
LINE520,0.000000,2.628037,0.000000,0.344824,1.280424,1.252482
LINE521,0.000000,2.239783,0.762356,3.347722,0.000000,1.567951
LINE522,4.855564,-0.841092,3.926727,3.347886,3.604882,1.252475
LINE523,0.000000,0.017665,0.000000,3.440880,0.000000,1.579183
LINE524,0.000000,0.780187,1.202610,3.347802,0.954042,1.252366
LINE525,0.000000,4.440461,0.000000,1.571789,0.000000,0.176176
LINE526,0.965725,-0.841015,0.000000,2.708743,0.000000,-1.390452
LINE527,0.179755,-0.841034,0.000000,-0.077921,0.000000,-1.487331
LINE528,0.200647,-0.841048,0.000000,0.642210,0.000000,-1.508412
LINE529,0.000000,0.030241,0.000000,3.581494,1.280424,1.252482
LINE530,4.855564,-0.841092,3.926727,3.347886,3.604882,1.252475
LINE531,0.000000,-0.184389,0.000000,3.513556,0.000000,1.632090
LINE532,0.000000,0.775466,1.202610,3.347802,0.954042,1.252366
LINE533,0.000000,1.085922,0.000000,4.655082,0.000000,2.156935
LINE534,0.965725,-0.841015,0.000000,2.675623,0.000000,-1.397851
LINE535,0.179755,-0.841034,0.000000,-0.155930,0.000000,-1.562315
LINE536,0.200647,-0.841048,0.000000,0.550036,0.000000,-1.058332
LINE537,0.000000,-1.207681,0.000000,3.370713,1.046105,1.252483
LINE538,0.000000,1.401071,0.000000,1.468505,0.234318,1.252473
LINE539,4.855564,-0.841092,3.926727,3.347886,3.604882,1.252475
LINE540,0.000000,-0.229779,0.000000,3.699972,0.000000,1.309763
LINE541,0.000000,0.727287,1.202610,3.347802,0.954042,1.252366
LINE542,0.000000,1.818926,0.000000,0.016315,0.000000,4.449551
LINE543,0.965725,-0.841015,0.000000,2.735870,0.000000,-1.304829
LINE544,0.179755,-0.841034,0.000000,-0.226237,0.000000,1.505091
LINE545,0.200647,-0.841048,0.000000,0.686143,0.000000,-0.049247
LINE546,0.000000,-0.190726,0.000000,3.499064,1.046105,1.252483
LINE547,4.855564,-0.841092,3.926727,3.347886,3.604882,1.252475
LINE548,0.000000,-0.433520,0.000000,3.246125,0.000000,1.550193
LINE549,0.000000,0.731540,1.202610,3.347802,0.954042,1.252366
LINE550,0.000000,4.002020,0.000000,1.485033,0.000000,1.504139
LINE551,0.229932,-0.841018,0.000000,2.472023,0.000000,-1.518530
LINE552,0.735793,-0.841015,0.000000,1.986663,0.000000,-1.295491
LINE553,0.179755,-0.841034,0.000000,-0.246443,0.000000,1.462287
LINE554,0.200647,-0.841048,0.000000,0.838296,0.000000,1.344996
LINE555,0.000000,1.416681,0.000000,4.677770,1.046105,1.252483
LINE556,4.855564,-0.841092,3.926727,3.347886,3.604882,1.252475
LINE557,0.000000,3.766677,0.000000,2.605436,0.000000,1.730183
LINE558,0.000000,0.732684,1.202610,3.347802,0.954042,1.252366
LINE559,0.000000,2.775284,0.000000,-0.486636,0.000000,4.692115
LINE560,0.229932,-0.841018,0.000000,1.994549,0.000000,-1.419691
LINE561,0.735793,-0.841015,0.000000,2.947156,0.000000,-1.425583
LINE562,0.179755,-0.841034,0.000000,-0.549849,0.000000,4.594725
LINE563,0.200647,-0.841048,0.000000,2.798277,0.000000,1.617054
LINE564,4.855564,-0.841092,3.926727,3.347886,3.604882,1.252475
LINE565,0.000000,1.244642,0.000000,-0.441069,0.000000,4.634003
LINE566,0.000000,0.844681,0.201123,3.347796,0.954042,1.252366
LINE567,0.000000,1.018487,0.000000,-0.715207,0.000000,-1.094243
LINE568,0.000000,-1.015708,1.001487,3.347803,0.000000,-1.289209
LINE569,0.229932,-0.841018,0.000000,3.387698,0.000000,-1.520325
LINE570,0.200647,-0.841048,0.000000,-0.445516,0.000000,-1.563584
LINE571,4.855564,-0.841092,3.926727,3.347886,3.604882,1.252475
LINE572,0.000000,1.312541,0.201123,3.347796,0.954042,1.252366
LINE573,0.000000,2.939912,0.000000,2.939912,0.000000,-0.145406
LINE574,0.000000,-1.130103,1.001487,3.347803,0.000000,-1.312388
LINE575,0.229932,-0.841018,0.000000,3.578408,0.000000,-1.452426
LINE576,0.200647,-0.841048,0.000000,0.845349,0.000000,-1.532919
LINE577,4.855564,-0.841092,3.926727,3.347886,3.604882,1.252475
LINE578,0.000000,-0.422094,0.201123,3.347796,0.954042,1.252366
LINE579,0.000000,2.939912,0.000000,2.939912,0.000000,-0.145406
LINE580,0.000000,1.365850,0.000000,4.029606,0.000000,-1.162024
LINE581,0.000000,-1.059659,1.001487,3.347803,0.000000,-1.359774
LINE582,0.229932,-0.841018,0.000000,3.549221,0.000000,-1.561871
LINE583,0.200647,-0.841048,0.000000,1.062128,0.000000,-1.419840
LINE584,0.000000,-0.219178,0.192682,3.347714,0.000000,1.598874
LINE585,4.855564,-0.841092,3.734045,3.347895,3.604882,1.252475
LINE586,0.000000,-0.788141,0.201123,3.347796,0.954042,1.252366
LINE587,0.000000,1.816662,0.000000,-0.066526,0.000000,-1.018052
LINE588,0.000000,1.072666,0.000000,4.040283,0.000000,-1.182386
LINE589,0.000000,4.688441,1.001487,3.347803,0.000000,-1.296680
LINE590,0.229932,-0.841018,0.000000,1.829194,0.000000,1.059845
LINE591,0.200647,-0.841048,0.000000,0.945637,0.000000,-1.533194
LINE592,0.000000,-0.176263,0.192682,3.347714,0.000000,1.598793
LINE593,4.855564,-0.841092,3.734045,3.347895,3.604882,1.252475
LINE594,0.000000,-0.058624,0.201123,3.347796,0.000000,-0.382559
LINE595,0.000000,-0.474532,0.000000,3.456816,0.954042,1.252366
LINE596,0.000000,1.208844,0.000000,4.095741,0.000000,-0.838870
LINE597,0.000000,-0.982102,1.001487,3.347803,0.000000,-1.238962
LINE598,0.229932,-0.841018,0.000000,3.909219,0.000000,4.590225
LINE599,0.200647,-0.841048,0.000000,1.917203,0.000000,1.330253
LINE600,0.000000,-0.219120,0.192682,3.347714,0.000000,1.598148
LINE601,0.000000,3.768693,0.000000,1.959251,0.188300,1.252467
LINE602,4.855564,-0.841092,3.734045,3.347895,3.416582,1.252476
LINE603,0.000000,0.296259,0.201123,3.347796,0.000000,-0.997937
LINE604,0.000000,0.986158,0.000000,0.026801,0.000000,0.567133
LINE605,0.000000,2.842684,0.000000,3.773253,0.000000,-1.202705
LINE606,0.000000,-0.499057,0.000000,-0.161642,0.954042,1.252366
LINE607,0.000000,-0.149575,0.000000,-0.149575,0.000000,3.066247
LINE608,0.000000,1.449347,0.000000,3.866975,0.000000,-0.818101
LINE609,0.000000,-1.047982,1.001487,3.347803,0.000000,-1.225966
LINE610,0.229932,-0.841018,0.000000,1.802027,0.000000,1.559391
LINE611,0.200647,-0.841048,0.000000,2.780867,0.000000,-1.414472
LINE612,0.000000,-0.257282,0.192682,3.347714,0.000000,1.591559
LINE613,0.000000,1.693490,0.000000,2.182733,0.188300,1.252467
LINE614,4.855564,-0.841092,3.734045,3.347895,3.416582,1.252476
LINE615,0.000000,0.032150,0.201123,3.347796,0.000000,-1.565851
LINE616,0.000000,-0.533337,0.000000,4.029685,0.000000,4.340827
LINE617,0.000000,-0.906485,0.000000,3.670280,0.000000,4.608819
LINE618,0.000000,3.492647,0.000000,-0.161967,0.954042,1.252366
LINE619,0.000000,1.611760,0.000000,4.470340,0.000000,-1.284367
LINE620,0.000000,-0.989111,1.001487,3.347803,0.000000,-1.087074
LINE621,0.200647,-0.841048,0.000000,0.509293,0.000000,-1.557383
LINE622,0.000000,-0.151865,0.192682,3.347714,0.000000,1.587531
LINE623,0.000000,2.705762,0.226205,3.347702,0.000000,4.491079
LINE624,4.855564,-0.841092,3.507841,3.347907,3.416582,1.252476
LINE625,0.000000,-0.191874,0.201123,3.347796,0.000000,3.074074
LINE626,0.000000,1.391348,0.000000,4.361727,0.000000,0.754126
LINE627,0.000000,-1.328275,1.001487,3.347803,0.000000,-0.934866
LINE628,0.200647,-0.841048,0.000000,0.198852,0.000000,1.622163
LINE629,0.000000,-0.298695,0.192682,3.347714,0.000000,1.574863
LINE630,0.000000,2.725321,0.226205,3.347702,0.000000,4.620486
LINE631,4.855564,-0.841092,3.507841,3.347907,3.416582,1.252476
LINE632,0.000000,0.000000,0.201123,3.347796,0.000000,3.074074
LINE633,0.000000,2.417023,0.000000,4.161893,0.000000,-0.755930
LINE634,0.000000,-0.825282,1.001487,3.347803,0.000000,-0.912166
LINE635,0.000000,-0.323043,0.192682,3.347714,0.000000,1.579726
LINE636,0.000000,2.132564,0.226205,3.347702,0.000000,4.690248
LINE637,4.855564,-0.841092,3.507841,3.347907,3.416582,1.252476
LINE638,0.000000,0.000000,0.201123,3.347796,0.000000,-0.067519
LINE639,0.000000,2.550711,0.000000,3.932706,0.000000,1.023344
LINE640,0.000000,-0.756234,1.001487,3.347803,0.000000,-0.796656
LINE641,0.000000,-0.326801,0.192682,3.347714,0.000000,1.579247
LINE642,0.000000,-0.170447,0.226205,3.347702,0.000000,1.664138
LINE643,4.855564,-0.841092,3.507841,3.347907,3.416582,1.252476
LINE644,0.000000,1.841326,0.000000,4.165590,0.000000,1.372582
LINE645,0.000000,-0.574520,1.001487,3.347803,0.000000,0.388271
LINE646,0.000000,-0.256907,0.192682,3.347714,0.000000,1.580484
LINE647,0.000000,2.477553,0.226205,3.347702,0.000000,1.575555
LINE648,4.855564,-0.841092,3.507841,3.347907,3.416582,1.252476
LINE649,0.000000,2.430768,0.000000,-0.159276,0.000000,-1.446697
LINE650,0.000000,0.045212,1.001487,3.347803,0.000000,0.531552
LINE651,0.000000,-0.228039,0.192682,3.347714,0.000000,1.578341
LINE652,0.000000,2.563504,0.226205,3.347702,0.000000,1.514804
LINE653,4.855564,-0.841092,3.507841,3.347907,3.416582,1.252476
LINE654,0.000000,2.649842,0.000000,0.362696,0.000000,3.312248
LINE655,0.000000,0.968325,0.821306,3.347804,0.000000,1.385000
LINE656,0.000000,-1.511087,0.180181,3.347799,0.000000,1.569261
LINE657,0.000000,-0.297693,0.192682,3.347714,0.000000,1.579160
LINE658,0.000000,2.744880,0.226205,3.347702,0.000000,1.533764
LINE659,4.855564,-0.841092,3.507841,3.347907,3.416582,1.252476
LINE660,0.000000,3.254365,0.000000,-0.045955,0.000000,-1.389345
LINE661,0.000000,3.227501,0.821306,3.347804,0.000000,1.558092
LINE662,0.000000,-1.059787,0.180181,3.347799,0.000000,1.574549
LINE663,0.000000,-0.253432,0.192682,3.347714,0.000000,1.581612
LINE664,0.000000,2.400432,0.226205,3.347702,0.000000,4.370512
LINE665,4.855564,-0.841092,3.507841,3.347907,3.416582,1.252476
LINE666,0.000000,4.683176,0.000000,-0.162842,0.000000,4.611817
LINE667,0.000000,3.356014,0.821306,3.347804,0.000000,1.499861
LINE668,0.000000,3.864689,0.180181,3.347799,0.000000,1.530352
LINE669,0.000000,-0.286650,0.192682,3.347714,0.000000,1.579467
LINE670,0.000000,2.472641,0.226205,3.347702,0.000000,1.693397
LINE671,3.948298,-0.841069,0.000000,0.239162,0.000000,1.335058
LINE672,0.907266,-0.841189,3.507841,3.347907,3.416582,1.252476
LINE673,0.000000,-0.136551,0.000000,2.939912,0.000000,-0.023514
LINE674,0.000000,-0.427280,0.821306,3.347804,0.000000,4.008037
LINE675,0.000000,-1.182517,0.180181,3.347799,0.000000,1.532216
LINE676,0.000000,-0.285255,0.192682,3.347714,0.000000,1.579511
LINE677,0.000000,3.360417,0.226205,3.347702,0.000000,1.365294
LINE678,3.948298,-0.841069,0.000000,0.320279,0.000000,1.423343
LINE679,0.907266,-0.841189,3.507841,3.347907,3.416582,1.252476
LINE680,0.000000,-0.627298,0.000000,-0.627298,0.000000,2.194068
LINE681,0.000000,2.417722,0.821306,3.347804,0.000000,-1.528162
LINE682,0.000000,-0.365732,0.192682,3.347714,0.000000,1.577615
LINE683,0.000000,0.465568,0.226205,3.347702,0.000000,4.653042
LINE684,3.948298,-0.841069,0.000000,0.170850,0.000000,1.402809
LINE685,0.907266,-0.841189,3.507841,3.347907,3.416582,1.252476
LINE686,0.000000,-0.290832,0.192682,3.347714,0.000000,1.575774
LINE687,0.000000,4.078441,0.226205,3.347702,0.000000,1.605233
LINE688,3.948298,-0.841069,0.000000,0.115688,0.000000,1.384781
LINE689,0.000000,0.004449,0.000000,3.462626,0.414301,1.252466
LINE690,0.907266,-0.841189,3.507841,3.347907,3.002281,1.252477
LINE691,0.000000,-0.420391,0.192682,3.347714,0.000000,1.577336
LINE692,3.948298,-0.841069,0.000000,0.142689,0.000000,1.364752
LINE693,0.000000,0.068453,0.000000,3.461805,0.205058,1.252466
LINE694,0.000000,-1.141879,0.000000,3.432827,0.209243,1.252466
LINE695,0.000000,-1.469734,0.121492,3.347745,0.000000,3.430276
LINE696,0.907266,-0.841189,3.386348,3.347913,3.002281,1.252477
LINE697,0.000000,-0.346625,0.192682,3.347714,0.000000,1.570650
LINE698,3.948298,-0.841069,0.000000,0.049055,0.000000,1.359253
LINE699,0.000000,0.201618,0.000000,3.386543,0.205058,1.252466
LINE700,0.000000,3.089749,0.000000,-0.078564,0.209243,1.252466
LINE701,0.000000,-0.273922,0.121492,3.347745,0.000000,-1.533365
LINE702,0.907266,-0.841189,3.386348,3.347913,3.002281,1.252477
LINE703,0.000000,-0.358287,0.192682,3.347714,0.000000,1.572241
LINE704,3.948298,-0.841069,0.000000,0.149005,0.000000,1.272221
LINE705,0.000000,0.585988,0.000000,3.361002,0.205058,1.252466
LINE706,0.907266,-0.841189,3.386348,3.347913,3.002281,1.252477
LINE707,0.000000,3.377620,0.000000,0.411095,0.000000,4.519334
LINE708,0.000000,-0.376793,0.192682,3.347714,0.000000,1.570093
LINE709,3.948298,-0.841069,0.000000,0.181030,0.000000,1.241198
LINE710,0.000000,0.510685,0.000000,3.482526,0.205058,1.252466
LINE711,0.480804,-0.841215,3.386348,3.347913,3.002281,1.252477
LINE712,0.426462,-0.841160,0.000000,3.777263,0.000000,-1.510683
LINE713,0.000000,3.164857,0.000000,0.520546,0.000000,4.544327
LINE714,0.000000,-0.274823,0.192682,3.347714,0.000000,1.571711
LINE715,3.948298,-0.841069,0.000000,0.176593,0.000000,1.262628
LINE716,0.000000,1.752218,0.000000,3.204931,0.205058,1.252466
LINE717,0.480804,-0.841215,3.386348,3.347913,3.002281,1.252477
LINE718,0.426462,-0.841160,0.000000,3.754746,0.000000,-1.509234
LINE719,0.000000,3.319965,0.000000,0.516112,0.000000,4.505218
LINE720,0.000000,-0.297521,0.192682,3.347714,0.000000,1.591378
LINE721,3.948298,-0.841069,0.000000,0.169359,0.000000,1.077656
LINE722,0.000000,1.972629,0.000000,2.459774,0.205058,1.252466
LINE723,0.480804,-0.841215,0.406460,3.347906,3.002281,1.252477
LINE724,0.000000,-0.405772,2.979889,3.347914,0.000000,1.557255
LINE725,0.426462,-0.841160,0.000000,3.866061,0.000000,-1.498683
LINE726,0.000000,3.414987,0.000000,0.571540,0.000000,4.429417
LINE727,0.000000,-0.054427,0.192682,3.347714,0.000000,1.588804
LINE728,3.948298,-0.841069,0.000000,0.166808,0.000000,1.199581
LINE729,0.000000,1.622518,0.000000,2.204738,0.205058,1.252466
LINE730,0.480804,-0.841215,0.406460,3.347906,3.002281,1.252477
LINE731,0.000000,-0.410916,2.979889,3.347914,0.000000,1.553890
LINE732,0.426462,-0.841160,0.000000,3.749007,0.000000,-1.517189
LINE733,0.000000,3.156694,0.000000,0.542084,0.000000,4.522417
LINE734,0.000000,-0.224450,0.192682,3.347714,0.000000,1.626346
LINE735,3.948298,-0.841069,0.000000,0.215470,0.000000,1.194668
LINE736,0.000000,2.287200,0.000000,0.963420,0.205058,1.252466
LINE737,0.480804,-0.841215,0.406460,3.347906,3.002281,1.252477
LINE738,0.000000,-0.422754,2.979889,3.347914,0.000000,1.552505
LINE739,0.426462,-0.841160,0.000000,3.720771,0.000000,-1.470772
LINE740,0.000000,3.384743,0.000000,0.385387,0.000000,4.449597
LINE741,0.000000,-0.100118,0.192682,3.347714,0.000000,1.747015
LINE742,3.948298,-0.841069,0.000000,0.175425,0.000000,1.129305
LINE743,0.000000,3.049197,0.000000,2.145692,0.205058,1.252466
LINE744,0.480804,-0.841215,0.406460,3.347906,3.002281,1.252477
LINE745,0.000000,-0.470407,2.753584,3.347916,0.000000,-1.510292
LINE746,0.000000,-0.396275,0.226304,3.347896,0.000000,1.563032
LINE747,0.426462,-0.841160,0.000000,3.659386,0.000000,-1.491846
LINE748,0.000000,3.459396,0.000000,0.388436,0.000000,4.524920
LINE749,0.000000,0.207877,0.192682,3.347714,0.000000,1.773436
LINE750,3.948298,-0.841069,0.000000,0.225682,0.000000,1.203229
LINE751,0.000000,1.626830,0.000000,2.809538,0.205058,1.252466
LINE752,0.480804,-0.841215,0.406460,3.347906,0.000000,2.060153
LINE753,0.000000,-0.255146,0.000000,4.080841,3.002281,1.252477
LINE754,0.000000,2.298514,2.753584,3.347916,0.000000,1.508173
LINE755,0.000000,-0.752866,0.226304,3.347896,0.000000,1.539832
LINE756,0.426462,-0.841160,0.000000,3.606185,0.000000,-1.477756
LINE757,0.000000,3.479831,0.000000,0.359811,0.000000,4.577137
LINE758,0.000000,2.259288,0.192682,3.347714,0.000000,4.594782
LINE759,3.948298,-0.841069,0.000000,0.168895,0.000000,-0.672822
LINE760,0.000000,3.295758,0.000000,2.679802,0.205058,1.252466
LINE761,0.480804,-0.841215,0.406460,3.347906,0.000000,2.181318
LINE762,0.000000,-0.254438,0.000000,4.084643,3.002281,1.252477
LINE763,0.000000,-1.335486,0.226304,3.347896,0.000000,1.525478
LINE764,0.426462,-0.841160,0.000000,3.564658,0.000000,-1.470590
LINE765,0.000000,3.326342,0.000000,0.370149,0.000000,4.594209
LINE766,0.000000,0.464360,0.192682,3.347714,0.000000,3.809842
LINE767,3.948298,-0.841069,0.000000,0.083334,0.000000,1.395643
LINE768,0.000000,4.659365,0.000000,3.677500,0.205058,1.252466
LINE769,0.480804,-0.841215,0.406460,3.347906,0.000000,3.529434
LINE770,0.000000,0.827401,0.000000,4.207502,1.704240,1.252479
LINE771,0.000000,-0.207928,0.000000,4.235840,1.298041,1.252474
LINE772,0.000000,-0.531350,0.226304,3.347896,0.000000,1.589802
LINE773,0.426462,-0.841160,0.000000,3.638214,0.000000,-1.438540
LINE774,0.000000,3.391080,0.000000,0.415380,0.000000,4.595324
LINE775,0.000000,3.050226,0.192682,3.347714,0.000000,4.589172
LINE776,3.948298,-0.841069,0.000000,0.121304,0.000000,1.348684
LINE777,0.000000,-0.221741,0.000000,-1.279116,0.205058,1.252466
LINE778,0.480804,-0.841215,0.406460,3.347906,0.000000,3.653485
LINE779,0.000000,-0.409134,0.000000,0.028739,1.704240,1.252479
LINE780,0.000000,-0.386303,0.000000,4.217998,1.298041,1.252474
LINE781,0.000000,4.435166,0.226304,3.347896,0.000000,1.590664
LINE782,0.426462,-0.841160,0.000000,3.644285,0.000000,-1.413811
LINE783,0.000000,3.419515,0.000000,0.469363,0.000000,4.576165
LINE784,0.000000,3.962107,0.192682,3.347714,0.000000,4.466963
LINE785,3.948298,-0.841069,0.000000,0.099002,0.000000,1.383460
LINE786,0.480804,-0.841215,0.406460,3.347906,0.000000,3.837483
LINE787,0.000000,-0.369432,0.000000,-1.567004,1.298041,1.252474
LINE788,0.000000,1.058474,0.226304,3.347896,0.000000,1.594368
LINE789,0.426462,-0.841160,0.000000,3.556878,0.000000,-1.439642
LINE790,0.000000,3.698852,0.000000,0.179904,0.000000,4.349209
LINE791,2.496993,-0.841067,0.000000,0.028767,0.000000,1.398981
LINE792,1.451304,-0.841075,0.000000,-0.196106,0.000000,4.709499
LINE793,0.480804,-0.841215,0.406460,3.347906,0.000000,3.756740
LINE794,0.000000,-0.404593,0.000000,4.444294,1.298041,1.252474
LINE795,0.000000,1.787746,0.226304,3.347896,0.000000,1.436583
LINE796,0.426462,-0.841160,0.000000,3.581513,0.000000,-1.361201
LINE797,0.000000,3.916334,0.000000,0.386579,0.000000,4.548225
LINE798,2.496993,-0.841067,0.000000,-0.001980,0.000000,1.473842
LINE799,1.451304,-0.841075,0.000000,4.646703,0.000000,1.555912
LINE800,0.480804,-0.841215,0.000000,1.432485,0.000000,4.660001
LINE801,0.000000,4.041876,0.406460,3.347906,0.000000,1.747252
LINE802,0.000000,-0.235861,0.000000,-1.379492,1.298041,1.252474
LINE803,0.000000,3.666063,0.226304,3.347896,0.000000,4.494506
LINE804,0.426462,-0.841160,0.000000,3.585015,0.000000,-1.292899
LINE805,0.000000,2.126752,0.000000,0.743725,0.000000,4.616264
LINE806,2.496993,-0.841067,0.000000,-0.046312,0.000000,1.360967
LINE807,1.451304,-0.841075,0.000000,0.108723,0.000000,1.625352
LINE808,0.480804,-0.841215,0.000000,1.254767,0.000000,-1.509073
LINE809,0.000000,4.095070,0.406460,3.347906,0.000000,1.703536
LINE810,0.000000,3.291378,0.000000,2.302439,0.000000,-0.899081
LINE811,0.000000,-0.654772,0.000000,-1.065846,1.298041,1.252474
LINE812,0.000000,2.230227,0.226304,3.347896,0.000000,1.694928
LINE813,0.426462,-0.841160,0.000000,3.471462,0.000000,-1.345822
LINE814,0.000000,-1.065708,0.000000,4.360496,0.000000,1.585021
LINE815,2.496993,-0.841067,0.000000,0.180555,0.000000,0.615749
LINE816,1.451304,-0.841075,0.000000,3.130154,0.000000,1.617282
LINE817,0.480804,-0.841215,0.000000,1.376925,0.000000,-1.510404
LINE818,0.000000,4.467651,0.406460,3.347906,0.000000,1.704718
LINE819,0.000000,3.713187,0.000000,3.234312,0.000000,1.156256
LINE820,0.000000,-0.353192,0.000000,-0.353192,1.298041,1.252474
LINE821,0.426462,-0.841160,0.000000,3.471718,0.000000,-1.231494
LINE822,0.000000,-0.513054,0.000000,4.136454,0.000000,1.638422
LINE823,2.496993,-0.841067,0.000000,-0.153652,0.000000,1.399342
LINE824,0.480804,-0.841215,0.000000,0.846762,0.000000,-1.569192
LINE825,0.000000,4.383262,0.406460,3.347906,0.000000,1.733308
LINE826,0.000000,2.445222,0.000000,3.620682,0.000000,3.469083
LINE827,0.000000,-0.908937,0.000000,3.165538,1.298041,1.252474
LINE828,0.426462,-0.841160,0.000000,3.422272,0.000000,-1.291442
LINE829,0.000000,-0.201681,0.000000,-0.201681,0.000000,2.996186
LINE830,2.496993,-0.841067,0.000000,-0.582328,0.000000,0.287657
LINE831,0.480804,-0.841215,0.000000,0.969568,0.000000,-1.528736
LINE832,0.000000,4.638780,0.406460,3.347906,0.000000,1.683605
LINE833,0.000000,2.995181,0.000000,-0.201681,0.000000,-0.192501
LINE834,0.000000,3.481774,0.000000,1.005108,1.298041,1.252474
LINE835,0.426462,-0.841160,0.000000,3.452248,0.000000,-1.233333
LINE836,2.496993,-0.841067,0.000000,3.141137,0.000000,-1.554050
LINE837,0.480804,-0.841215,0.000000,0.620787,0.000000,-1.554889
LINE838,0.000000,-1.322464,0.406460,3.347906,0.000000,1.665403
LINE839,0.000000,0.969180,0.000000,0.404719,0.000000,4.300555
LINE840,0.426462,-0.841160,0.000000,3.464812,0.000000,-1.237095
LINE841,2.496993,-0.841067,0.000000,2.758292,0.000000,1.509341
LINE842,0.480804,-0.841215,0.000000,0.837112,0.000000,4.706522
LINE843,0.000000,-0.751813,0.406460,3.347906,0.000000,1.578376
LINE844,0.000000,4.659766,0.000000,-1.546834,0.000000,1.799174
LINE845,0.000000,2.939912,0.000000,2.939912,0.000000,-0.145406
LINE846,0.426462,-0.841160,0.000000,3.467377,0.000000,-1.171683
LINE847,2.496993,-0.841067,0.000000,1.625447,0.000000,1.650839
LINE848,0.480804,-0.841215,0.000000,0.934247,0.000000,-1.548748
LINE849,0.000000,-0.626118,0.406460,3.347906,0.000000,1.573151
LINE850,0.000000,4.651775,0.000000,4.624060,0.000000,2.031202
LINE851,0.000000,4.416586,0.000000,1.722220,0.000000,1.269713
LINE852,0.426462,-0.841160,0.000000,3.356103,0.000000,-1.340173
LINE853,2.496993,-0.841067,0.000000,0.018477,0.000000,1.359521
LINE854,0.480804,-0.841215,0.000000,0.965380,0.000000,-1.553857
LINE855,0.000000,-0.432720,0.406460,3.347906,0.000000,1.574900
LINE856,0.000000,4.697067,0.000000,4.543104,0.000000,2.220914
LINE857,0.000000,-0.201681,0.000000,-0.201681,0.000000,2.996186
LINE858,0.426462,-0.841160,0.000000,3.406473,0.000000,-1.348452
LINE859,0.221661,-0.841083,0.000000,2.794997,0.000000,1.260669
LINE860,2.275332,-0.841065,0.000000,0.733188,0.000000,1.506444
LINE861,0.480804,-0.841215,0.000000,0.968466,0.000000,-1.553398
LINE862,0.000000,-0.335885,0.406460,3.347906,0.000000,1.578558
LINE863,0.000000,-1.276642,0.000000,-1.530813,0.000000,2.058007
LINE864,0.000000,4.284115,0.000000,-0.185348,0.000000,1.392962
LINE865,0.426462,-0.841160,0.000000,3.177469,0.000000,-1.343659
LINE866,0.480804,-0.841215,0.000000,0.865849,0.000000,-1.548257
LINE867,0.000000,-0.531166,0.406460,3.347906,0.000000,1.546415
LINE868,0.000000,4.688421,0.000000,-1.450840,0.000000,2.346970
LINE869,0.000000,-0.391456,0.000000,0.397516,0.000000,0.163153
LINE870,0.426462,-0.841160,0.000000,3.122128,0.000000,-1.409723
LINE871,0.480804,-0.841215,0.000000,0.897881,0.000000,-1.549859
LINE872,0.000000,-1.174667,0.209516,3.347906,0.000000,1.526060
LINE873,0.000000,0.000000,0.196944,3.347905,0.000000,-1.541612
LINE874,0.000000,3.501176,0.000000,-1.428393,0.000000,1.961213
LINE875,0.000000,-0.750780,0.000000,-0.750780,0.000000,-1.429158
LINE876,0.426462,-0.841160,0.000000,3.184431,0.000000,0.746895
LINE877,0.480804,-0.841215,0.000000,0.929849,0.000000,-1.553945
LINE878,0.000000,-1.174667,0.209516,3.347906,0.000000,1.573475
LINE879,0.000000,-0.852917,0.196944,3.347905,0.000000,-1.372311
LINE880,0.000000,-1.171180,0.000000,-1.382636,0.000000,1.078935
LINE881,0.000000,-0.644015,0.000000,-0.644015,0.000000,2.037722
LINE882,0.426462,-0.841160,0.000000,0.345095,0.000000,-1.425615
LINE883,0.480804,-0.841215,0.000000,0.908161,0.000000,-1.559899
LINE884,0.000000,-1.050312,0.209516,3.347906,0.000000,-1.474750
LINE885,0.000000,0.000000,0.196944,3.347905,0.000000,3.074074
LINE886,0.426462,-0.841160,0.000000,0.901229,0.000000,1.826852
LINE887,0.250855,-0.841214,0.000000,1.078792,0.000000,-1.548650
LINE888,0.229950,-0.841215,0.000000,3.562233,0.000000,1.735367
LINE889,0.000000,1.503278,0.209516,3.347906,0.000000,-0.067519
LINE890,0.426462,-0.841160,0.000000,2.688464,0.000000,1.657560
LINE891,0.250855,-0.841214,0.000000,1.095100,0.000000,-1.545968
LINE892,0.229950,-0.841215,0.000000,3.348306,0.000000,1.730204
LINE893,0.000000,-0.531166,0.209516,3.347906,0.000000,1.550118
LINE894,0.225774,-0.841159,0.000000,0.744527,0.000000,1.531980
LINE895,0.200687,-0.841161,0.000000,3.242069,0.000000,-1.531715
LINE896,0.250855,-0.841214,0.000000,0.810805,0.000000,-1.564981
LINE897,0.229950,-0.841215,0.000000,4.467922,0.000000,-1.507009
LINE898,0.000000,0.000000,0.209516,3.347906,0.000000,-0.067519
LINE899,0.225774,-0.841159,0.000000,2.569028,0.000000,1.466916
LINE900,0.250855,-0.841214,0.000000,0.750782,0.000000,-1.562629
LINE901,0.250855,-0.841214,0.000000,2.177944,0.000000,4.686310
LINE902,0.250855,-0.841214,0.000000,3.215660,0.000000,1.607024
LINE903,0.250855,-0.841214,0.000000,0.095180,0.000000,1.914690
LINE904,0.250855,-0.841214,0.000000,1.994290,0.000000,1.584642
LINE905,0.250855,-0.841214,0.000000,3.396867,0.000000,1.502993
